18
-4.081666738e+01 (WHBB)
O      -1.726744000e+00  -1.949373000e+00  -2.869670000e-01
H      -2.049611000e+00  -1.021593000e+00  -3.291060000e-01
H      -2.494719000e+00  -2.475947000e+00  -5.241700000e-02
O      -2.590266000e+00   6.225990000e-01  -3.616360000e-01
H      -1.948340000e+00   1.276484000e+00  -5.295000000e-03
H      -2.876587000e+00   9.909820000e-01  -1.201544000e+00
O      -7.946100000e-01   2.415041000e+00   6.106170000e-01
H       1.344100000e-01   2.266967000e+00   3.279850000e-01
H      -7.544270000e-01   2.536367000e+00   1.562552000e+00
O       2.590163000e+00  -6.227360000e-01  -3.619010000e-01
H       1.948264000e+00  -1.276555000e+00  -5.381000000e-03
H       2.876251000e+00  -9.911670000e-01  -1.201866000e+00
O       7.945570000e-01  -2.414847000e+00   6.109890000e-01
H       7.543780000e-01  -2.535812000e+00   1.562971000e+00
H      -1.344510000e-01  -2.266742000e+00   3.283010000e-01
O       1.726922000e+00   1.949301000e+00  -2.867060000e-01
H       2.495054000e+00   2.475673000e+00  -5.222900000e-02
H       2.049592000e+00   1.021469000e+00  -3.291440000e-01
