   18
-4.58799091e+01
O       8.423321359e-01  -1.756958812e+00  -5.051675785e-01
H       1.134279877e+00  -2.623048313e+00  -8.035999582e-01
H       1.662549510e+00  -1.236153565e+00  -3.120324269e-01
O      -7.625416943e-01   3.677722342e-01  -1.655289515e+00
H      -1.651207639e+00   2.470745062e-01  -1.248394340e+00
H      -2.843182798e-01  -4.654787205e-01  -1.473612917e+00
O       6.376799002e-01   1.813831980e+00   2.348661301e-01
H       4.202310722e-01   2.750684402e+00   2.603928871e-01
H       1.193082131e-01   1.427019460e+00  -5.234715198e-01
O      -6.426687115e-01  -4.369967071e-01   1.590265573e+00
H      -2.129249426e-01   4.172981231e-01   1.395510657e+00
H      -1.918442112e-01  -1.072548420e+00   9.989599879e-01
O       2.816912296e+00   5.967787457e-02   1.895023698e-01
H       3.365756550e+00   1.283119712e-01   9.748009271e-01
H       2.188313679e+00   8.179093982e-01   2.340779592e-01
O      -2.955191843e+00  -5.575278964e-02   4.099287798e-02
H      -3.703741623e+00  -6.083177887e-01   2.710706108e-01
H      -2.272528289e+00  -2.253578345e-01   7.315042786e-01
