   15
-3.58380599e+01
O      -1.355000374e+00  -2.135895699e+01  -4.322087630e-01
H      -1.728059153e+00  -2.053103759e+01  -5.012672735e-02
H      -1.785083544e+00  -2.148735001e+01  -1.272322615e+00
O      -2.313311537e+00  -1.901043440e+01   6.638085687e-01
H      -1.569434134e+00  -1.836940188e+01   7.157960392e-01
H      -2.706232317e+00  -1.904500964e+01   1.530806039e+00
O      -1.232477602e-01  -1.729245536e+01   7.816125274e-01
H       1.617588866e-01  -1.665458681e+01   1.427281147e+00
H       6.930797642e-01  -1.771634399e+01   4.268537726e-01
O       2.104641027e+00  -1.855455159e+01  -2.471355789e-01
H       1.888811346e+00  -1.951420860e+01  -3.052273678e-01
H       2.394147638e+00  -1.828950941e+01  -1.115064733e+00
O       1.404483385e+00  -2.122413310e+01  -3.776354296e-01
H       4.228837629e-01  -2.130678865e+01  -3.950269162e-01
H       1.716463004e+00  -2.182843199e+01   2.889900348e-01
