15
-3.384270084e+01 (WHBB)
O       1.834190000e+01  -1.847870000e+01   2.497100000e+00
H       1.812880000e+01  -1.755530000e+01   2.288900000e+00
H       1.914760000e+01  -1.861790000e+01   1.970400000e+00
O       2.008980000e+01  -1.844810000e+01   1.161000000e-01
H       2.100680000e+01  -1.841740000e+01  -1.823000000e-01
H       1.967120000e+01  -1.918810000e+01  -3.914000000e-01
O       1.659100000e+01  -1.907690000e+01   2.857000000e-01
H       1.669580000e+01  -1.814100000e+01   4.250000000e-02
H       1.703070000e+01  -1.909210000e+01   1.159400000e+00
O       1.804070000e+01  -1.653630000e+01   2.537000000e-01
H       1.886210000e+01  -1.702600000e+01   4.350000000e-02
H       1.812510000e+01  -1.568510000e+01  -1.927000000e-01
O       1.856980000e+01  -2.030600000e+01  -1.139100000e+00
H       1.858930000e+01  -2.123310000e+01  -8.702000000e-01
H       1.774840000e+01  -1.994290000e+01  -7.234000000e-01
