12
-2.547286013e+01 (WHBB)
O       1.108600000e+01  -1.088330000e+01  -2.460000000e-02
H       1.012450000e+01  -1.103050000e+01  -1.756000000e-01
H       1.134310000e+01  -1.155000000e+01   6.239000000e-01
O       1.100650000e+01  -8.225500000e+00   6.727000000e-01
H       1.168280000e+01  -7.734900000e+00   1.903000000e-01
H       1.116350000e+01  -9.170000000e+00   4.410000000e-01
O       8.288600000e+00  -8.187600000e+00   2.161000000e-01
H       8.032000000e+00  -7.521400000e+00  -4.330000000e-01
H       9.250100000e+00  -8.040400000e+00   3.675000000e-01
O       8.367900000e+00  -1.084570000e+01  -4.800000000e-01
H       7.691900000e+00  -1.133620000e+01   3.100000000e-03
H       8.211000000e+00  -9.901200000e+00  -2.486000000e-01
