9
-1.503524904e+01 (WHBB)
O       7.970800000e+00  -1.975700000e+00  -1.200000000e-01
H       7.540800000e+00  -2.581900000e+00   4.951000000e-01
H       8.898300000e+00  -2.284300000e+00  -1.789000000e-01
O       1.076520000e+01  -1.960300000e+00  -2.644000000e-01
H       1.128300000e+01  -2.224100000e+00   5.066000000e-01
H       1.058070000e+01  -1.010100000e+00  -1.202000000e-01
O       9.371500000e+00   4.200000000e-01   2.688000000e-01
H       9.140800000e+00   1.165800000e+00  -2.985000000e-01
H       8.622600000e+00  -2.038000000e-01   1.882000000e-01
