18
-4.158297909e+01 (WHBB)
O       0.000000000e+00   2.696547000e+00   1.395020000e-01
H      -8.425140000e-01   2.202380000e+00   2.595300000e-02
H      -1.286100000e-01   3.230175000e+00   9.277890000e-01
O      -2.335278000e+00  -1.348274000e+00   1.395020000e-01
H      -2.733108000e+00  -1.726467000e+00   9.277890000e-01
H      -1.486060000e+00  -1.830828000e+00   2.595300000e-02
O       2.335278000e+00   1.348274000e+00  -1.395020000e-01
H       1.486060000e+00   1.830828000e+00  -2.595300000e-02
H       2.733108000e+00   1.726467000e+00  -9.277890000e-01
O       0.000000000e+00  -2.696547000e+00  -1.395020000e-01
H       1.286100000e-01  -3.230175000e+00  -9.277890000e-01
H       8.425140000e-01  -2.202380000e+00  -2.595300000e-02
O       2.335278000e+00  -1.348274000e+00   1.395020000e-01
H       2.328574000e+00  -3.715510000e-01   2.595300000e-02
H       2.861718000e+00  -1.503708000e+00   9.277890000e-01
O      -2.335278000e+00   1.348274000e+00  -1.395020000e-01
H      -2.328574000e+00   3.715510000e-01  -2.595300000e-02
H      -2.861718000e+00   1.503708000e+00  -9.277890000e-01
