15
-3.322518318e+01 (WHBB)
O       1.504400000e+00  -2.887280000e+01   9.370000000e-02
H       2.422300000e+00  -2.896190000e+01  -1.903000000e-01
H       1.003100000e+00  -2.953920000e+01  -4.298000000e-01
O      -2.837000000e-01  -3.057030000e+01  -1.141100000e+00
H      -3.707000000e-01  -3.144800000e+01  -7.482000000e-01
H      -1.072000000e+00  -3.008090000e+01  -8.198000000e-01
O      -2.145200000e+00  -2.893300000e+01   1.004000000e-01
H      -1.654300000e+00  -2.882400000e+01   9.527000000e-01
H      -3.067400000e+00  -2.907820000e+01   3.441000000e-01
O      -4.817000000e-01  -2.830950000e+01   2.168500000e+00
H       3.538000000e-01  -2.870240000e+01   1.861700000e+00
H      -4.237000000e-01  -2.742070000e+01   1.767700000e+00
O      -2.838000000e-01  -2.650590000e+01  -6.730000000e-02
H       4.565000000e-01  -2.711550000e+01  -2.358000000e-01
H      -1.048500000e+00  -2.700410000e+01  -3.966000000e-01
