12
-2.342196391e+01 (WHBB)
O       2.052950000e+01  -1.007400000e+01   5.233000000e-01
H       2.147730000e+01  -9.946300000e+00   6.476000000e-01
H       2.023690000e+01  -9.330900000e+00  -4.010000000e-02
O       1.712910000e+01  -9.546600000e+00   6.461000000e-01
H       1.748180000e+01  -1.039220000e+01   2.939000000e-01
H       1.742820000e+01  -9.524200000e+00   1.564600000e+00
O       1.892620000e+01  -8.470900000e+00  -1.114000000e+00
H       1.880520000e+01  -7.580200000e+00  -1.463100000e+00
H       1.818460000e+01  -8.617600000e+00  -4.829000000e-01
O       1.851720000e+01  -1.148160000e+01  -9.040000000e-01
H       1.937110000e+01  -1.135300000e+01  -4.511000000e-01
H       1.855170000e+01  -1.079900000e+01  -1.591700000e+00
