   12
-2.71916518e+01
O      -1.160089906e+00  -1.093274868e+01  -3.387213059e-01
H      -1.417543347e+00  -1.110914949e+01  -1.238880318e+00
H      -1.261651018e+00  -9.961788902e+00  -2.019723294e-01
O       1.551613595e+00  -1.096967406e+01   1.583932141e-01
H       5.853786276e-01  -1.104574401e+01  -2.155450455e-02
H       1.720856540e+00  -1.146960717e+01   9.515574349e-01
O       1.532516339e+00  -8.228501653e+00   4.540811175e-01
H       1.628473618e+00  -9.204413815e+00   3.532570896e-01
H       2.039852414e+00  -7.831267208e+00  -2.477028012e-01
O      -1.202873362e+00  -8.212508937e+00   1.088136406e-01
H      -2.310345612e-01  -8.131486600e+00   2.528364108e-01
H      -1.621998938e+00  -7.933409468e+00   9.175923519e-01
