15
-3.345216426e+01 (WHBB)
O       7.811100000e+00  -1.925340000e+01   9.959000000e-01
H       7.084400000e+00  -1.926800000e+01   1.630000000e+00
H       7.678300000e+00  -2.005170000e+01   4.265000000e-01
O       7.734900000e+00  -2.147600000e+01  -5.605000000e-01
H       7.484900000e+00  -2.137330000e+01  -1.487300000e+00
H       8.685300000e+00  -2.173920000e+01  -5.904000000e-01
O       1.043930000e+01  -2.184620000e+01  -6.341000000e-01
H       1.069120000e+01  -2.100440000e+01  -1.845000000e-01
H       1.094230000e+01  -2.253430000e+01  -1.822000000e-01
O       1.074330000e+01  -1.948660000e+01   7.160000000e-01
H       9.916800000e+00  -1.952160000e+01   1.226400000e+00
H       1.059500000e+01  -1.868250000e+01   1.835000000e-01
O       9.297000000e+00  -1.726140000e+01  -3.622000000e-01
H       8.597000000e+00  -1.776320000e+01   9.960000000e-02
H       9.302200000e+00  -1.639470000e+01   6.230000000e-02
