   18
-4.61934598e+01
O      -1.563252586e+00  -2.037648757e-01   1.473179030e+00
H      -2.033997987e+00  -3.852280046e-01   2.291975236e+00
H      -6.509567983e-01  -5.915571935e-01   1.580078460e+00
O      -1.726197375e+00  -3.835700499e-01  -1.344078133e+00
H      -2.555010194e+00  -6.938623288e-01  -1.720343212e+00
H      -1.826067645e+00  -4.400160095e-01  -3.642421827e-01
O      -6.082431221e-01   1.974986255e+00  -1.494277678e-01
H      -9.824600586e-01   1.464815981e+00  -8.928344075e-01
H      -9.765294526e-01   1.524854248e+00   6.360333942e-01
O       1.016830177e+00  -1.148358019e+00   1.421814406e+00
H       1.553510054e+00  -3.537952661e-01   1.228762683e+00
H       9.971744190e-01  -1.607657946e+00   5.529517539e-01
O       9.954277513e-01  -1.370639975e+00  -1.387146862e+00
H       1.468992491e+00  -5.458034203e-01  -1.171131043e+00
H       7.308236499e-02  -1.098311702e+00  -1.553327605e+00
O       2.023510182e+00   1.058655244e+00  -1.050757506e-01
H       2.698470744e+00   1.727276919e+00  -2.482292751e-01
H       1.153277037e+00   1.529232146e+00  -1.321667229e-01
