15
-3.148072005e+01 (WHBB)
O       2.048570000e+01  -3.122200000e+01   4.370000000e-02
H       2.068920000e+01  -3.199130000e+01   5.894000000e-01
H       1.953550000e+01  -3.131860000e+01  -1.785000000e-01
O       1.768590000e+01  -3.116340000e+01  -3.495000000e-01
H       1.711760000e+01  -3.164910000e+01   2.608000000e-01
H       1.753310000e+01  -3.022240000e+01  -1.241000000e-01
O       1.768780000e+01  -2.848220000e+01   5.480000000e-01
H       1.859090000e+01  -2.859380000e+01   9.549000000e-01
H       1.712710000e+01  -2.812070000e+01   1.245500000e+00
O       2.027430000e+01  -2.867370000e+01   1.175900000e+00
H       2.051780000e+01  -2.955130000e+01   8.105000000e-01
H       2.046730000e+01  -2.804200000e+01   4.593000000e-01
O       1.964760000e+01  -2.685780000e+01  -9.790000000e-01
H       1.877740000e+01  -2.722470000e+01  -7.430000000e-01
H       1.957960000e+01  -2.592130000e+01  -7.533000000e-01
