   18
-4.42885010e+01
O       2.365861492e-02   2.718377676e+00   2.355447661e-01
H      -8.259651345e-01   2.247361249e+00   3.888505587e-02
H      -1.743274999e-01   3.304515067e+00   9.691531036e-01
O      -2.366016391e+00  -1.338695894e+00   2.355376633e-01
H      -2.774642416e+00  -1.803213193e+00   9.691487227e-01
H      -1.533289856e+00  -1.838986755e+00   3.889686550e-02
O       2.366016394e+00   1.338695897e+00  -2.355376398e-01
H       1.533289855e+00   1.838986756e+00  -3.889685051e-02
H       2.774642434e+00   1.803213209e+00  -9.691486827e-01
O      -2.365862029e-02  -2.718377677e+00  -2.355447688e-01
H       1.743274857e-01  -3.304515065e+00  -9.691531113e-01
H       8.259651314e-01  -2.247361251e+00  -3.888506677e-02
O       2.342349890e+00  -1.379678378e+00   2.355903738e-01
H       2.359253686e+00  -4.083739320e-01   3.893339483e-02
H       2.948937482e+00  -1.501287865e+00   9.692110948e-01
O      -2.342349890e+00   1.379678374e+00  -2.355903949e-01
H      -2.359253687e+00   4.083739313e-01  -3.893339972e-02
H      -2.948937471e+00   1.501287847e+00  -9.692111274e-01
