12
-2.622232528e+01 (WHBB)
O      -1.139900000e+00  -1.096620000e+01  -2.631000000e-01
H      -1.303100000e+00  -1.000270000e+01  -1.396000000e-01
H      -1.558100000e+00  -1.118080000e+01  -1.105900000e+00
O       1.585500000e+00  -1.092780000e+01   9.230000000e-02
H       1.797400000e+00  -1.156490000e+01   7.855000000e-01
H       6.279000000e-01  -1.106660000e+01  -9.240000000e-02
O       1.489300000e+00  -8.215300000e+00   5.263000000e-01
H       2.131200000e+00  -7.803500000e+00  -6.510000000e-02
H       1.647500000e+00  -9.183200000e+00   4.342000000e-01
O      -1.213700000e+00  -8.233900000e+00   2.700000000e-02
H      -1.649200000e+00  -7.794500000e+00   7.678000000e-01
H      -2.513000000e-01  -8.090900000e+00   1.807000000e-01
