    9
-1.49332822e+01
O       7.909013508e+00  -1.997238182e+00  -1.871830989e-01
H       8.850493407e+00  -2.230953240e+00  -2.854220132e-01
H       7.596302468e+00  -2.482121541e+00   5.731989607e-01
O       1.079145171e+01  -1.917289456e+00  -2.521634190e-01
H       1.049125396e+01  -1.017550536e+00  -1.613345312e-02
H       1.136631082e+01  -2.192044381e+00   4.575158717e-01
O       9.303882041e+00   4.274100776e-01   3.601617489e-01
H       8.635374788e+00  -2.687831073e-01   2.080391761e-01
H       9.229617302e+00   1.024170365e+00  -3.813137733e-01
