   18
-4.39120923e+01
O      -2.320101664e-03   2.715779292e+00   2.809426650e-01
H      -8.434220614e-01   2.242251112e+00   8.833315644e-02
H      -1.336680282e-01   3.175925526e+00   1.104240928e+00
O      -2.350773823e+00  -1.359895900e+00   2.809570878e-01
H      -2.683598264e+00  -1.703710825e+00   1.104259009e+00
H      -1.520135394e+00  -1.851549543e+00   8.835293019e-02
O       2.350773822e+00   1.359895893e+00  -2.809571240e-01
H       1.520135398e+00   1.851549540e+00  -8.835295300e-02
H       2.683598234e+00   1.703710793e+00  -1.104259068e+00
O       2.320114973e-03  -2.715779292e+00  -2.809426600e-01
H       1.336680561e-01  -3.175925533e+00  -1.104240917e+00
H       8.434220710e-01  -2.242251110e+00  -8.833314098e-02
O       2.353091283e+00  -1.355878876e+00   2.809718796e-01
H       2.363556630e+00  -3.907001485e-01   8.835732654e-02
H       2.817255872e+00  -1.472196965e+00   1.104275105e+00
O      -2.353091282e+00   1.355878884e+00  -2.809718486e-01
H      -2.363556628e+00   3.907001517e-01  -8.835731886e-02
H      -2.817255892e+00   1.472196995e+00  -1.104275059e+00
