   18
-4.63167661e+01
O       9.073692730e-01  -1.805500316e+00  -5.522085054e-01
H       1.279284165e+00  -2.495287167e+00  -1.091369831e+00
H       1.649381854e+00  -1.202782221e+00  -3.004891063e-01
O      -7.453188527e-01   3.224798785e-01  -1.633463488e+00
H      -1.569620832e+00   2.858129986e-01  -1.105691895e+00
H      -2.224948159e-01  -4.622649457e-01  -1.403005506e+00
O       5.231071639e-01   1.777146413e+00   1.088133613e-01
H       2.985821609e-01   2.696215501e+00   5.992317335e-02
H       1.538491649e-02   1.287260015e+00  -6.150890533e-01
O      -5.894768672e-01  -4.291484014e-01   1.683907136e+00
H      -1.924778959e-01   4.024755809e-01   1.378306488e+00
H      -2.190558650e-01  -1.099445320e+00   1.095096457e+00
O       2.738380744e+00   6.738767308e-02   2.335501385e-01
H       3.012006525e+00  -3.178224168e-02   1.141687410e+00
H       2.047246176e+00   7.640048011e-01   2.228864724e-01
O      -2.847981305e+00   1.542589330e-01   1.961831814e-01
H      -3.441113603e+00  -5.900487642e-01   1.549570398e-01
H      -2.132806944e+00  -9.181540865e-02   8.263825275e-01
