18
-4.530431087e+01 (WHBB)
O       8.642970000e-01  -1.713818000e+00  -4.733670000e-01
H       1.149970000e+00  -2.586897000e+00  -7.562990000e-01
H       1.685273000e+00  -1.201591000e+00  -3.019820000e-01
O      -7.306970000e-01   4.056690000e-01  -1.636684000e+00
H      -1.610695000e+00   2.468050000e-01  -1.244929000e+00
H      -2.647800000e-01  -4.357670000e-01  -1.507301000e+00
O       5.901240000e-01   1.738583000e+00   2.504310000e-01
H       4.986940000e-01   2.694291000e+00   2.013210000e-01
H       6.749400000e-02   1.372619000e+00  -5.126840000e-01
O      -7.022990000e-01  -4.947210000e-01   1.659451000e+00
H      -2.826090000e-01   3.632290000e-01   1.492787000e+00
H      -2.012380000e-01  -1.096535000e+00   1.085954000e+00
O       2.795840000e+00   1.134420000e-01   7.992500000e-02
H       3.296432000e+00   1.024640000e-01   9.004060000e-01
H       2.149178000e+00   8.417560000e-01   1.811250000e-01
O      -2.890180000e+00   1.527900000e-02   6.304800000e-02
H      -3.647524000e+00  -5.677560000e-01   1.560790000e-01
H      -2.256884000e+00  -2.480850000e-01   7.630950000e-01
