   12
-2.68228226e+01
O      -1.121769274e+00  -1.097210846e+01  -4.061987626e-01
H      -1.566937111e+00  -1.115442444e+01  -1.236713690e+00
H      -1.308918215e+00  -1.002224062e+01  -2.073819114e-01
O       1.589094660e+00  -1.095144429e+01   2.347281628e-01
H       6.468347025e-01  -1.109148196e+01  -2.859179263e-02
H       1.769666931e+00  -1.161133938e+01   9.078557037e-01
O       1.514532383e+00  -8.171162713e+00   3.911648200e-01
H       1.672665725e+00  -9.146679054e+00   3.783784557e-01
H       2.179738540e+00  -7.794342611e+00  -1.890730138e-01
O      -1.260691102e+00  -8.248717871e+00   1.628724467e-01
H      -2.894155460e-01  -8.083031697e+00   2.401619168e-01
H      -1.661301692e+00  -7.783326900e+00   9.004976654e-01
