15
-3.218810970e+01 (WHBB)
O       1.038970000e+01  -3.099400000e+01  -4.973000000e-01
H       1.059350000e+01  -3.083940000e+01  -1.428400000e+00
H       9.422200000e+00  -3.116350000e+01  -4.861000000e-01
O       7.613600000e+00  -3.121380000e+01  -3.042000000e-01
H       7.302800000e+00  -3.187680000e+01   3.251000000e-01
H       7.394800000e+00  -3.035510000e+01   1.134000000e-01
O       7.500800000e+00  -2.868310000e+01   9.359000000e-01
H       8.463200000e+00  -2.871840000e+01   1.189600000e+00
H       7.020900000e+00  -2.845410000e+01   1.741400000e+00
O       1.017120000e+01  -2.867050000e+01   1.065100000e+00
H       1.041250000e+01  -2.948630000e+01   5.751000000e-01
H       1.015560000e+01  -2.798420000e+01   3.740000000e-01
O       8.955000000e+00  -2.695510000e+01  -9.296000000e-01
H       8.187500000e+00  -2.736370000e+01  -4.908000000e-01
H       8.840500000e+00  -2.600790000e+01  -7.812000000e-01
