   18
-4.61369230e+01
O      -1.412188250e+00  -9.203367756e-02   1.394993803e+00
H      -1.999086240e+00  -2.809447075e-01   2.113716238e+00
H      -6.135627983e-01  -7.165712983e-01   1.445583911e+00
O      -1.794792940e+00  -5.438187905e-01  -1.362865564e+00
H      -2.281836349e+00  -1.351387722e+00  -1.508469919e+00
H      -1.778434768e+00  -4.010866875e-01  -3.942672803e-01
O      -5.001498146e-01   2.217062182e+00  -6.323813191e-03
H      -8.927294570e-01   2.074633596e+00  -8.674977207e-01
H      -8.473628717e-01   1.496272128e+00   5.531717458e-01
O       6.563409648e-01  -1.627019868e+00   1.362557050e+00
H       1.358770096e+00  -1.186643910e+00   1.829640838e+00
H       8.191299525e-01  -1.508600116e+00   3.745614321e-01
O       9.822507551e-01  -1.154445169e+00  -1.176628616e+00
H       1.437144194e+00  -3.178508780e-01  -9.500458507e-01
H       5.056798472e-02  -9.483832012e-01  -1.365079280e+00
O       2.081274728e+00   1.263413552e+00  -2.994886208e-01
H       2.590186908e+00   1.847144517e+00  -8.537132508e-01
H       1.202037820e+00   1.687516142e+00  -1.730530954e-01
